<edges>
  <edge id="W0_I0" from="W0" to="I0" priority="3" numLanes="3" speed="13.90"/>
  <edge id="I0_W0" from="I0" to="W0" priority="3" numLanes="3" speed="13.90"/>
  <edge id="I0_I1" from="I0" to="I1" priority="3" numLanes="3" speed="13.90"/>
  <edge id="I1_I0" from="I1" to="I0" priority="3" numLanes="3" speed="13.90"/>
  <edge id="I1_I2" from="I1" to="I2" priority="3" numLanes="3" speed="13.90"/>
  <edge id="I2_I1" from="I2" to="I1" priority="3" numLanes="3" speed="13.90"/>
  <edge id="I2_I3" from="I2" to="I3" priority="3" numLanes="3" speed="13.90"/>
  <edge id="I3_I2" from="I3" to="I2" priority="3" numLanes="3" speed="13.90"/>
  <edge id="I3_I4" from="I3" to="I4" priority="3" numLanes="3" speed="13.90"/>
  <edge id="I4_I3" from="I4" to="I3" priority="3" numLanes="3" speed="13.90"/>
  <edge id="I4_I5" from="I4" to="I5" priority="3" numLanes="3" speed="13.90"/>
  <edge id="I5_I4" from="I5" to="I4" priority="3" numLanes="3" speed="13.90"/>
  <edge id="I5_I6" from="I5" to="I6" priority="3" numLanes="3" speed="13.90"/>
  <edge id="I6_I5" from="I6" to="I5" priority="3" numLanes="3" speed="13.90"/>
  <edge id="I6_I7" from="I6" to="I7" priority="3" numLanes="3" speed="13.90"/>
  <edge id="I7_I6" from="I7" to="I6" priority="3" numLanes="3" speed="13.90"/>
  <edge id="I7_I8" from="I7" to="I8" priority="3" numLanes="3" speed="13.90"/>
  <edge id="I8_I7" from="I8" to="I7" priority="3" numLanes="3" speed="13.90"/>
  <edge id="I8_I9" from="I8" to="I9" priority="3" numLanes="3" speed="13.90"/>
  <edge id="I9_I8" from="I9" to="I8" priority="3" numLanes="3" speed="13.90"/>
  <edge id="I9_E9" from="I9" to="E9" priority="3" numLanes="3" speed="13.90"/>
  <edge id="E9_I9" from="E9" to="I9" priority="3" numLanes="3" speed="13.90"/>
  <edge id="N0_I0" from="N0" to="I0" priority="1" numLanes="1" speed="13.90"/>
  <edge id="I0_N0" from="I0" to="N0" priority="1" numLanes="1" speed="13.90"/>
  <edge id="S0_I0" from="S0" to="I0" priority="1" numLanes="1" speed="13.90"/>
  <edge id="I0_S0" from="I0" to="S0" priority="1" numLanes="1" speed="13.90"/>
  <edge id="N1_I1" from="N1" to="I1" priority="1" numLanes="1" speed="13.90"/>
  <edge id="I1_N1" from="I1" to="N1" priority="1" numLanes="1" speed="13.90"/>
  <edge id="S1_I1" from="S1" to="I1" priority="1" numLanes="1" speed="13.90"/>
  <edge id="I1_S1" from="I1" to="S1" priority="1" numLanes="1" speed="13.90"/>
  <edge id="N2_I2" from="N2" to="I2" priority="1" numLanes="1" speed="13.90"/>
  <edge id="I2_N2" from="I2" to="N2" priority="1" numLanes="1" speed="13.90"/>
  <edge id="S2_I2" from="S2" to="I2" priority="1" numLanes="1" speed="13.90"/>
  <edge id="I2_S2" from="I2" to="S2" priority="1" numLanes="1" speed="13.90"/>
  <edge id="N3_I3" from="N3" to="I3" priority="1" numLanes="1" speed="13.90"/>
  <edge id="I3_N3" from="I3" to="N3" priority="1" numLanes="1" speed="13.90"/>
  <edge id="S3_I3" from="S3" to="I3" priority="1" numLanes="1" speed="13.90"/>
  <edge id="I3_S3" from="I3" to="S3" priority="1" numLanes="1" speed="13.90"/>
  <edge id="N4_I4" from="N4" to="I4" priority="1" numLanes="1" speed="13.90"/>
  <edge id="I4_N4" from="I4" to="N4" priority="1" numLanes="1" speed="13.90"/>
  <edge id="S4_I4" from="S4" to="I4" priority="1" numLanes="1" speed="13.90"/>
  <edge id="I4_S4" from="I4" to="S4" priority="1" numLanes="1" speed="13.90"/>
  <edge id="N5_I5" from="N5" to="I5" priority="1" numLanes="1" speed="13.90"/>
  <edge id="I5_N5" from="I5" to="N5" priority="1" numLanes="1" speed="13.90"/>
  <edge id="S5_I5" from="S5" to="I5" priority="1" numLanes="1" speed="13.90"/>
  <edge id="I5_S5" from="I5" to="S5" priority="1" numLanes="1" speed="13.90"/>
  <edge id="N6_I6" from="N6" to="I6" priority="1" numLanes="1" speed="13.90"/>
  <edge id="I6_N6" from="I6" to="N6" priority="1" numLanes="1" speed="13.90"/>
  <edge id="S6_I6" from="S6" to="I6" priority="1" numLanes="1" speed="13.90"/>
  <edge id="I6_S6" from="I6" to="S6" priority="1" numLanes="1" speed="13.90"/>
  <edge id="N7_I7" from="N7" to="I7" priority="1" numLanes="1" speed="13.90"/>
  <edge id="I7_N7" from="I7" to="N7" priority="1" numLanes="1" speed="13.90"/>
  <edge id="S7_I7" from="S7" to="I7" priority="1" numLanes="1" speed="13.90"/>
  <edge id="I7_S7" from="I7" to="S7" priority="1" numLanes="1" speed="13.90"/>
  <edge id="N8_I8" from="N8" to="I8" priority="1" numLanes="1" speed="13.90"/>
  <edge id="I8_N8" from="I8" to="N8" priority="1" numLanes="1" speed="13.90"/>
  <edge id="S8_I8" from="S8" to="I8" priority="1" numLanes="1" speed="13.90"/>
  <edge id="I8_S8" from="I8" to="S8" priority="1" numLanes="1" speed="13.90"/>
  <edge id="N9_I9" from="N9" to="I9" priority="1" numLanes="1" speed="13.90"/>
  <edge id="I9_N9" from="I9" to="N9" priority="1" numLanes="1" speed="13.90"/>
  <edge id="S9_I9" from="S9" to="I9" priority="1" numLanes="1" speed="13.90"/>
  <edge id="I9_S9" from="I9" to="S9" priority="1" numLanes="1" speed="13.90"/>
</edges>