<nodes>
  <node id="W0" x="-250.00" y="0.00" type="dead_end"/>
  <node id="E99" x="49750.00" y="0.00" type="dead_end"/>
  <node id="I0" x="0.00" y="0.00" type="traffic_light"/>
  <node id="N0" x="0.00" y="250.00" type="dead_end"/>
  <node id="S0" x="0.00" y="-250.00" type="dead_end"/>
  <node id="I1" x="500.00" y="0.00" type="traffic_light"/>
  <node id="N1" x="500.00" y="250.00" type="dead_end"/>
  <node id="S1" x="500.00" y="-250.00" type="dead_end"/>
  <node id="I2" x="1000.00" y="0.00" type="traffic_light"/>
  <node id="N2" x="1000.00" y="250.00" type="dead_end"/>
  <node id="S2" x="1000.00" y="-250.00" type="dead_end"/>
  <node id="I3" x="1500.00" y="0.00" type="traffic_light"/>
  <node id="N3" x="1500.00" y="250.00" type="dead_end"/>
  <node id="S3" x="1500.00" y="-250.00" type="dead_end"/>
  <node id="I4" x="2000.00" y="0.00" type="traffic_light"/>
  <node id="N4" x="2000.00" y="250.00" type="dead_end"/>
  <node id="S4" x="2000.00" y="-250.00" type="dead_end"/>
  <node id="I5" x="2500.00" y="0.00" type="traffic_light"/>
  <node id="N5" x="2500.00" y="250.00" type="dead_end"/>
  <node id="S5" x="2500.00" y="-250.00" type="dead_end"/>
  <node id="I6" x="3000.00" y="0.00" type="traffic_light"/>
  <node id="N6" x="3000.00" y="250.00" type="dead_end"/>
  <node id="S6" x="3000.00" y="-250.00" type="dead_end"/>
  <node id="I7" x="3500.00" y="0.00" type="traffic_light"/>
  <node id="N7" x="3500.00" y="250.00" type="dead_end"/>
  <node id="S7" x="3500.00" y="-250.00" type="dead_end"/>
  <node id="I8" x="4000.00" y="0.00" type="traffic_light"/>
  <node id="N8" x="4000.00" y="250.00" type="dead_end"/>
  <node id="S8" x="4000.00" y="-250.00" type="dead_end"/>
  <node id="I9" x="4500.00" y="0.00" type="traffic_light"/>
  <node id="N9" x="4500.00" y="250.00" type="dead_end"/>
  <node id="S9" x="4500.00" y="-250.00" type="dead_end"/>
  <node id="I10" x="5000.00" y="0.00" type="traffic_light"/>
  <node id="N10" x="5000.00" y="250.00" type="dead_end"/>
  <node id="S10" x="5000.00" y="-250.00" type="dead_end"/>
  <node id="I11" x="5500.00" y="0.00" type="traffic_light"/>
  <node id="N11" x="5500.00" y="250.00" type="dead_end"/>
  <node id="S11" x="5500.00" y="-250.00" type="dead_end"/>
  <node id="I12" x="6000.00" y="0.00" type="traffic_light"/>
  <node id="N12" x="6000.00" y="250.00" type="dead_end"/>
  <node id="S12" x="6000.00" y="-250.00" type="dead_end"/>
  <node id="I13" x="6500.00" y="0.00" type="traffic_light"/>
  <node id="N13" x="6500.00" y="250.00" type="dead_end"/>
  <node id="S13" x="6500.00" y="-250.00" type="dead_end"/>
  <node id="I14" x="7000.00" y="0.00" type="traffic_light"/>
  <node id="N14" x="7000.00" y="250.00" type="dead_end"/>
  <node id="S14" x="7000.00" y="-250.00" type="dead_end"/>
  <node id="I15" x="7500.00" y="0.00" type="traffic_light"/>
  <node id="N15" x="7500.00" y="250.00" type="dead_end"/>
  <node id="S15" x="7500.00" y="-250.00" type="dead_end"/>
  <node id="I16" x="8000.00" y="0.00" type="traffic_light"/>
  <node id="N16" x="8000.00" y="250.00" type="dead_end"/>
  <node id="S16" x="8000.00" y="-250.00" type="dead_end"/>
  <node id="I17" x="8500.00" y="0.00" type="traffic_light"/>
  <node id="N17" x="8500.00" y="250.00" type="dead_end"/>
  <node id="S17" x="8500.00" y="-250.00" type="dead_end"/>
  <node id="I18" x="9000.00" y="0.00" type="traffic_light"/>
  <node id="N18" x="9000.00" y="250.00" type="dead_end"/>
  <node id="S18" x="9000.00" y="-250.00" type="dead_end"/>
  <node id="I19" x="9500.00" y="0.00" type="traffic_light"/>
  <node id="N19" x="9500.00" y="250.00" type="dead_end"/>
  <node id="S19" x="9500.00" y="-250.00" type="dead_end"/>
  <node id="I20" x="10000.00" y="0.00" type="traffic_light"/>
  <node id="N20" x="10000.00" y="250.00" type="dead_end"/>
  <node id="S20" x="10000.00" y="-250.00" type="dead_end"/>
  <node id="I21" x="10500.00" y="0.00" type="traffic_light"/>
  <node id="N21" x="10500.00" y="250.00" type="dead_end"/>
  <node id="S21" x="10500.00" y="-250.00" type="dead_end"/>
  <node id="I22" x="11000.00" y="0.00" type="traffic_light"/>
  <node id="N22" x="11000.00" y="250.00" type="dead_end"/>
  <node id="S22" x="11000.00" y="-250.00" type="dead_end"/>
  <node id="I23" x="11500.00" y="0.00" type="traffic_light"/>
  <node id="N23" x="11500.00" y="250.00" type="dead_end"/>
  <node id="S23" x="11500.00" y="-250.00" type="dead_end"/>
  <node id="I24" x="12000.00" y="0.00" type="traffic_light"/>
  <node id="N24" x="12000.00" y="250.00" type="dead_end"/>
  <node id="S24" x="12000.00" y="-250.00" type="dead_end"/>
  <node id="I25" x="12500.00" y="0.00" type="traffic_light"/>
  <node id="N25" x="12500.00" y="250.00" type="dead_end"/>
  <node id="S25" x="12500.00" y="-250.00" type="dead_end"/>
  <node id="I26" x="13000.00" y="0.00" type="traffic_light"/>
  <node id="N26" x="13000.00" y="250.00" type="dead_end"/>
  <node id="S26" x="13000.00" y="-250.00" type="dead_end"/>
  <node id="I27" x="13500.00" y="0.00" type="traffic_light"/>
  <node id="N27" x="13500.00" y="250.00" type="dead_end"/>
  <node id="S27" x="13500.00" y="-250.00" type="dead_end"/>
  <node id="I28" x="14000.00" y="0.00" type="traffic_light"/>
  <node id="N28" x="14000.00" y="250.00" type="dead_end"/>
  <node id="S28" x="14000.00" y="-250.00" type="dead_end"/>
  <node id="I29" x="14500.00" y="0.00" type="traffic_light"/>
  <node id="N29" x="14500.00" y="250.00" type="dead_end"/>
  <node id="S29" x="14500.00" y="-250.00" type="dead_end"/>
  <node id="I30" x="15000.00" y="0.00" type="traffic_light"/>
  <node id="N30" x="15000.00" y="250.00" type="dead_end"/>
  <node id="S30" x="15000.00" y="-250.00" type="dead_end"/>
  <node id="I31" x="15500.00" y="0.00" type="traffic_light"/>
  <node id="N31" x="15500.00" y="250.00" type="dead_end"/>
  <node id="S31" x="15500.00" y="-250.00" type="dead_end"/>
  <node id="I32" x="16000.00" y="0.00" type="traffic_light"/>
  <node id="N32" x="16000.00" y="250.00" type="dead_end"/>
  <node id="S32" x="16000.00" y="-250.00" type="dead_end"/>
  <node id="I33" x="16500.00" y="0.00" type="traffic_light"/>
  <node id="N33" x="16500.00" y="250.00" type="dead_end"/>
  <node id="S33" x="16500.00" y="-250.00" type="dead_end"/>
  <node id="I34" x="17000.00" y="0.00" type="traffic_light"/>
  <node id="N34" x="17000.00" y="250.00" type="dead_end"/>
  <node id="S34" x="17000.00" y="-250.00" type="dead_end"/>
  <node id="I35" x="17500.00" y="0.00" type="traffic_light"/>
  <node id="N35" x="17500.00" y="250.00" type="dead_end"/>
  <node id="S35" x="17500.00" y="-250.00" type="dead_end"/>
  <node id="I36" x="18000.00" y="0.00" type="traffic_light"/>
  <node id="N36" x="18000.00" y="250.00" type="dead_end"/>
  <node id="S36" x="18000.00" y="-250.00" type="dead_end"/>
  <node id="I37" x="18500.00" y="0.00" type="traffic_light"/>
  <node id="N37" x="18500.00" y="250.00" type="dead_end"/>
  <node id="S37" x="18500.00" y="-250.00" type="dead_end"/>
  <node id="I38" x="19000.00" y="0.00" type="traffic_light"/>
  <node id="N38" x="19000.00" y="250.00" type="dead_end"/>
  <node id="S38" x="19000.00" y="-250.00" type="dead_end"/>
  <node id="I39" x="19500.00" y="0.00" type="traffic_light"/>
  <node id="N39" x="19500.00" y="250.00" type="dead_end"/>
  <node id="S39" x="19500.00" y="-250.00" type="dead_end"/>
  <node id="I40" x="20000.00" y="0.00" type="traffic_light"/>
  <node id="N40" x="20000.00" y="250.00" type="dead_end"/>
  <node id="S40" x="20000.00" y="-250.00" type="dead_end"/>
  <node id="I41" x="20500.00" y="0.00" type="traffic_light"/>
  <node id="N41" x="20500.00" y="250.00" type="dead_end"/>
  <node id="S41" x="20500.00" y="-250.00" type="dead_end"/>
  <node id="I42" x="21000.00" y="0.00" type="traffic_light"/>
  <node id="N42" x="21000.00" y="250.00" type="dead_end"/>
  <node id="S42" x="21000.00" y="-250.00" type="dead_end"/>
  <node id="I43" x="21500.00" y="0.00" type="traffic_light"/>
  <node id="N43" x="21500.00" y="250.00" type="dead_end"/>
  <node id="S43" x="21500.00" y="-250.00" type="dead_end"/>
  <node id="I44" x="22000.00" y="0.00" type="traffic_light"/>
  <node id="N44" x="22000.00" y="250.00" type="dead_end"/>
  <node id="S44" x="22000.00" y="-250.00" type="dead_end"/>
  <node id="I45" x="22500.00" y="0.00" type="traffic_light"/>
  <node id="N45" x="22500.00" y="250.00" type="dead_end"/>
  <node id="S45" x="22500.00" y="-250.00" type="dead_end"/>
  <node id="I46" x="23000.00" y="0.00" type="traffic_light"/>
  <node id="N46" x="23000.00" y="250.00" type="dead_end"/>
  <node id="S46" x="23000.00" y="-250.00" type="dead_end"/>
  <node id="I47" x="23500.00" y="0.00" type="traffic_light"/>
  <node id="N47" x="23500.00" y="250.00" type="dead_end"/>
  <node id="S47" x="23500.00" y="-250.00" type="dead_end"/>
  <node id="I48" x="24000.00" y="0.00" type="traffic_light"/>
  <node id="N48" x="24000.00" y="250.00" type="dead_end"/>
  <node id="S48" x="24000.00" y="-250.00" type="dead_end"/>
  <node id="I49" x="24500.00" y="0.00" type="traffic_light"/>
  <node id="N49" x="24500.00" y="250.00" type="dead_end"/>
  <node id="S49" x="24500.00" y="-250.00" type="dead_end"/>
  <node id="I50" x="25000.00" y="0.00" type="traffic_light"/>
  <node id="N50" x="25000.00" y="250.00" type="dead_end"/>
  <node id="S50" x="25000.00" y="-250.00" type="dead_end"/>
  <node id="I51" x="25500.00" y="0.00" type="traffic_light"/>
  <node id="N51" x="25500.00" y="250.00" type="dead_end"/>
  <node id="S51" x="25500.00" y="-250.00" type="dead_end"/>
  <node id="I52" x="26000.00" y="0.00" type="traffic_light"/>
  <node id="N52" x="26000.00" y="250.00" type="dead_end"/>
  <node id="S52" x="26000.00" y="-250.00" type="dead_end"/>
  <node id="I53" x="26500.00" y="0.00" type="traffic_light"/>
  <node id="N53" x="26500.00" y="250.00" type="dead_end"/>
  <node id="S53" x="26500.00" y="-250.00" type="dead_end"/>
  <node id="I54" x="27000.00" y="0.00" type="traffic_light"/>
  <node id="N54" x="27000.00" y="250.00" type="dead_end"/>
  <node id="S54" x="27000.00" y="-250.00" type="dead_end"/>
  <node id="I55" x="27500.00" y="0.00" type="traffic_light"/>
  <node id="N55" x="27500.00" y="250.00" type="dead_end"/>
  <node id="S55" x="27500.00" y="-250.00" type="dead_end"/>
  <node id="I56" x="28000.00" y="0.00" type="traffic_light"/>
  <node id="N56" x="28000.00" y="250.00" type="dead_end"/>
  <node id="S56" x="28000.00" y="-250.00" type="dead_end"/>
  <node id="I57" x="28500.00" y="0.00" type="traffic_light"/>
  <node id="N57" x="28500.00" y="250.00" type="dead_end"/>
  <node id="S57" x="28500.00" y="-250.00" type="dead_end"/>
  <node id="I58" x="29000.00" y="0.00" type="traffic_light"/>
  <node id="N58" x="29000.00" y="250.00" type="dead_end"/>
  <node id="S58" x="29000.00" y="-250.00" type="dead_end"/>
  <node id="I59" x="29500.00" y="0.00" type="traffic_light"/>
  <node id="N59" x="29500.00" y="250.00" type="dead_end"/>
  <node id="S59" x="29500.00" y="-250.00" type="dead_end"/>
  <node id="I60" x="30000.00" y="0.00" type="traffic_light"/>
  <node id="N60" x="30000.00" y="250.00" type="dead_end"/>
  <node id="S60" x="30000.00" y="-250.00" type="dead_end"/>
  <node id="I61" x="30500.00" y="0.00" type="traffic_light"/>
  <node id="N61" x="30500.00" y="250.00" type="dead_end"/>
  <node id="S61" x="30500.00" y="-250.00" type="dead_end"/>
  <node id="I62" x="31000.00" y="0.00" type="traffic_light"/>
  <node id="N62" x="31000.00" y="250.00" type="dead_end"/>
  <node id="S62" x="31000.00" y="-250.00" type="dead_end"/>
  <node id="I63" x="31500.00" y="0.00" type="traffic_light"/>
  <node id="N63" x="31500.00" y="250.00" type="dead_end"/>
  <node id="S63" x="31500.00" y="-250.00" type="dead_end"/>
  <node id="I64" x="32000.00" y="0.00" type="traffic_light"/>
  <node id="N64" x="32000.00" y="250.00" type="dead_end"/>
  <node id="S64" x="32000.00" y="-250.00" type="dead_end"/>
  <node id="I65" x="32500.00" y="0.00" type="traffic_light"/>
  <node id="N65" x="32500.00" y="250.00" type="dead_end"/>
  <node id="S65" x="32500.00" y="-250.00" type="dead_end"/>
  <node id="I66" x="33000.00" y="0.00" type="traffic_light"/>
  <node id="N66" x="33000.00" y="250.00" type="dead_end"/>
  <node id="S66" x="33000.00" y="-250.00" type="dead_end"/>
  <node id="I67" x="33500.00" y="0.00" type="traffic_light"/>
  <node id="N67" x="33500.00" y="250.00" type="dead_end"/>
  <node id="S67" x="33500.00" y="-250.00" type="dead_end"/>
  <node id="I68" x="34000.00" y="0.00" type="traffic_light"/>
  <node id="N68" x="34000.00" y="250.00" type="dead_end"/>
  <node id="S68" x="34000.00" y="-250.00" type="dead_end"/>
  <node id="I69" x="34500.00" y="0.00" type="traffic_light"/>
  <node id="N69" x="34500.00" y="250.00" type="dead_end"/>
  <node id="S69" x="34500.00" y="-250.00" type="dead_end"/>
  <node id="I70" x="35000.00" y="0.00" type="traffic_light"/>
  <node id="N70" x="35000.00" y="250.00" type="dead_end"/>
  <node id="S70" x="35000.00" y="-250.00" type="dead_end"/>
  <node id="I71" x="35500.00" y="0.00" type="traffic_light"/>
  <node id="N71" x="35500.00" y="250.00" type="dead_end"/>
  <node id="S71" x="35500.00" y="-250.00" type="dead_end"/>
  <node id="I72" x="36000.00" y="0.00" type="traffic_light"/>
  <node id="N72" x="36000.00" y="250.00" type="dead_end"/>
  <node id="S72" x="36000.00" y="-250.00" type="dead_end"/>
  <node id="I73" x="36500.00" y="0.00" type="traffic_light"/>
  <node id="N73" x="36500.00" y="250.00" type="dead_end"/>
  <node id="S73" x="36500.00" y="-250.00" type="dead_end"/>
  <node id="I74" x="37000.00" y="0.00" type="traffic_light"/>
  <node id="N74" x="37000.00" y="250.00" type="dead_end"/>
  <node id="S74" x="37000.00" y="-250.00" type="dead_end"/>
  <node id="I75" x="37500.00" y="0.00" type="traffic_light"/>
  <node id="N75" x="37500.00" y="250.00" type="dead_end"/>
  <node id="S75" x="37500.00" y="-250.00" type="dead_end"/>
  <node id="I76" x="38000.00" y="0.00" type="traffic_light"/>
  <node id="N76" x="38000.00" y="250.00" type="dead_end"/>
  <node id="S76" x="38000.00" y="-250.00" type="dead_end"/>
  <node id="I77" x="38500.00" y="0.00" type="traffic_light"/>
  <node id="N77" x="38500.00" y="250.00" type="dead_end"/>
  <node id="S77" x="38500.00" y="-250.00" type="dead_end"/>
  <node id="I78" x="39000.00" y="0.00" type="traffic_light"/>
  <node id="N78" x="39000.00" y="250.00" type="dead_end"/>
  <node id="S78" x="39000.00" y="-250.00" type="dead_end"/>
  <node id="I79" x="39500.00" y="0.00" type="traffic_light"/>
  <node id="N79" x="39500.00" y="250.00" type="dead_end"/>
  <node id="S79" x="39500.00" y="-250.00" type="dead_end"/>
  <node id="I80" x="40000.00" y="0.00" type="traffic_light"/>
  <node id="N80" x="40000.00" y="250.00" type="dead_end"/>
  <node id="S80" x="40000.00" y="-250.00" type="dead_end"/>
  <node id="I81" x="40500.00" y="0.00" type="traffic_light"/>
  <node id="N81" x="40500.00" y="250.00" type="dead_end"/>
  <node id="S81" x="40500.00" y="-250.00" type="dead_end"/>
  <node id="I82" x="41000.00" y="0.00" type="traffic_light"/>
  <node id="N82" x="41000.00" y="250.00" type="dead_end"/>
  <node id="S82" x="41000.00" y="-250.00" type="dead_end"/>
  <node id="I83" x="41500.00" y="0.00" type="traffic_light"/>
  <node id="N83" x="41500.00" y="250.00" type="dead_end"/>
  <node id="S83" x="41500.00" y="-250.00" type="dead_end"/>
  <node id="I84" x="42000.00" y="0.00" type="traffic_light"/>
  <node id="N84" x="42000.00" y="250.00" type="dead_end"/>
  <node id="S84" x="42000.00" y="-250.00" type="dead_end"/>
  <node id="I85" x="42500.00" y="0.00" type="traffic_light"/>
  <node id="N85" x="42500.00" y="250.00" type="dead_end"/>
  <node id="S85" x="42500.00" y="-250.00" type="dead_end"/>
  <node id="I86" x="43000.00" y="0.00" type="traffic_light"/>
  <node id="N86" x="43000.00" y="250.00" type="dead_end"/>
  <node id="S86" x="43000.00" y="-250.00" type="dead_end"/>
  <node id="I87" x="43500.00" y="0.00" type="traffic_light"/>
  <node id="N87" x="43500.00" y="250.00" type="dead_end"/>
  <node id="S87" x="43500.00" y="-250.00" type="dead_end"/>
  <node id="I88" x="44000.00" y="0.00" type="traffic_light"/>
  <node id="N88" x="44000.00" y="250.00" type="dead_end"/>
  <node id="S88" x="44000.00" y="-250.00" type="dead_end"/>
  <node id="I89" x="44500.00" y="0.00" type="traffic_light"/>
  <node id="N89" x="44500.00" y="250.00" type="dead_end"/>
  <node id="S89" x="44500.00" y="-250.00" type="dead_end"/>
  <node id="I90" x="45000.00" y="0.00" type="traffic_light"/>
  <node id="N90" x="45000.00" y="250.00" type="dead_end"/>
  <node id="S90" x="45000.00" y="-250.00" type="dead_end"/>
  <node id="I91" x="45500.00" y="0.00" type="traffic_light"/>
  <node id="N91" x="45500.00" y="250.00" type="dead_end"/>
  <node id="S91" x="45500.00" y="-250.00" type="dead_end"/>
  <node id="I92" x="46000.00" y="0.00" type="traffic_light"/>
  <node id="N92" x="46000.00" y="250.00" type="dead_end"/>
  <node id="S92" x="46000.00" y="-250.00" type="dead_end"/>
  <node id="I93" x="46500.00" y="0.00" type="traffic_light"/>
  <node id="N93" x="46500.00" y="250.00" type="dead_end"/>
  <node id="S93" x="46500.00" y="-250.00" type="dead_end"/>
  <node id="I94" x="47000.00" y="0.00" type="traffic_light"/>
  <node id="N94" x="47000.00" y="250.00" type="dead_end"/>
  <node id="S94" x="47000.00" y="-250.00" type="dead_end"/>
  <node id="I95" x="47500.00" y="0.00" type="traffic_light"/>
  <node id="N95" x="47500.00" y="250.00" type="dead_end"/>
  <node id="S95" x="47500.00" y="-250.00" type="dead_end"/>
  <node id="I96" x="48000.00" y="0.00" type="traffic_light"/>
  <node id="N96" x="48000.00" y="250.00" type="dead_end"/>
  <node id="S96" x="48000.00" y="-250.00" type="dead_end"/>
  <node id="I97" x="48500.00" y="0.00" type="traffic_light"/>
  <node id="N97" x="48500.00" y="250.00" type="dead_end"/>
  <node id="S97" x="48500.00" y="-250.00" type="dead_end"/>
  <node id="I98" x="49000.00" y="0.00" type="traffic_light"/>
  <node id="N98" x="49000.00" y="250.00" type="dead_end"/>
  <node id="S98" x="49000.00" y="-250.00" type="dead_end"/>
  <node id="I99" x="49500.00" y="0.00" type="traffic_light"/>
  <node id="N99" x="49500.00" y="250.00" type="dead_end"/>
  <node id="S99" x="49500.00" y="-250.00" type="dead_end"/>
</nodes>