<edges>
  <edge id="W0_I0" from="W0" to="I0" priority="3" numLanes="3" speed="13.90"/>
  <edge id="I0_W0" from="I0" to="W0" priority="3" numLanes="3" speed="13.90"/>
  <edge id="I0_I1" from="I0" to="I1" priority="3" numLanes="3" speed="13.90"/>
  <edge id="I1_I0" from="I1" to="I0" priority="3" numLanes="3" speed="13.90"/>
  <edge id="I1_I2" from="I1" to="I2" priority="3" numLanes="3" speed="13.90"/>
  <edge id="I2_I1" from="I2" to="I1" priority="3" numLanes="3" speed="13.90"/>
  <edge id="I2_I3" from="I2" to="I3" priority="3" numLanes="3" speed="13.90"/>
  <edge id="I3_I2" from="I3" to="I2" priority="3" numLanes="3" speed="13.90"/>
  <edge id="I3_I4" from="I3" to="I4" priority="3" numLanes="3" speed="13.90"/>
  <edge id="I4_I3" from="I4" to="I3" priority="3" numLanes="3" speed="13.90"/>
  <edge id="I4_I5" from="I4" to="I5" priority="3" numLanes="3" speed="13.90"/>
  <edge id="I5_I4" from="I5" to="I4" priority="3" numLanes="3" speed="13.90"/>
  <edge id="I5_I6" from="I5" to="I6" priority="3" numLanes="3" speed="13.90"/>
  <edge id="I6_I5" from="I6" to="I5" priority="3" numLanes="3" speed="13.90"/>
  <edge id="I6_I7" from="I6" to="I7" priority="3" numLanes="3" speed="13.90"/>
  <edge id="I7_I6" from="I7" to="I6" priority="3" numLanes="3" speed="13.90"/>
  <edge id="I7_I8" from="I7" to="I8" priority="3" numLanes="3" speed="13.90"/>
  <edge id="I8_I7" from="I8" to="I7" priority="3" numLanes="3" speed="13.90"/>
  <edge id="I8_I9" from="I8" to="I9" priority="3" numLanes="3" speed="13.90"/>
  <edge id="I9_I8" from="I9" to="I8" priority="3" numLanes="3" speed="13.90"/>
  <edge id="I9_I10" from="I9" to="I10" priority="3" numLanes="3" speed="13.90"/>
  <edge id="I10_I9" from="I10" to="I9" priority="3" numLanes="3" speed="13.90"/>
  <edge id="I10_I11" from="I10" to="I11" priority="3" numLanes="3" speed="13.90"/>
  <edge id="I11_I10" from="I11" to="I10" priority="3" numLanes="3" speed="13.90"/>
  <edge id="I11_I12" from="I11" to="I12" priority="3" numLanes="3" speed="13.90"/>
  <edge id="I12_I11" from="I12" to="I11" priority="3" numLanes="3" speed="13.90"/>
  <edge id="I12_I13" from="I12" to="I13" priority="3" numLanes="3" speed="13.90"/>
  <edge id="I13_I12" from="I13" to="I12" priority="3" numLanes="3" speed="13.90"/>
  <edge id="I13_I14" from="I13" to="I14" priority="3" numLanes="3" speed="13.90"/>
  <edge id="I14_I13" from="I14" to="I13" priority="3" numLanes="3" speed="13.90"/>
  <edge id="I14_I15" from="I14" to="I15" priority="3" numLanes="3" speed="13.90"/>
  <edge id="I15_I14" from="I15" to="I14" priority="3" numLanes="3" speed="13.90"/>
  <edge id="I15_I16" from="I15" to="I16" priority="3" numLanes="3" speed="13.90"/>
  <edge id="I16_I15" from="I16" to="I15" priority="3" numLanes="3" speed="13.90"/>
  <edge id="I16_I17" from="I16" to="I17" priority="3" numLanes="3" speed="13.90"/>
  <edge id="I17_I16" from="I17" to="I16" priority="3" numLanes="3" speed="13.90"/>
  <edge id="I17_I18" from="I17" to="I18" priority="3" numLanes="3" speed="13.90"/>
  <edge id="I18_I17" from="I18" to="I17" priority="3" numLanes="3" speed="13.90"/>
  <edge id="I18_I19" from="I18" to="I19" priority="3" numLanes="3" speed="13.90"/>
  <edge id="I19_I18" from="I19" to="I18" priority="3" numLanes="3" speed="13.90"/>
  <edge id="I19_I20" from="I19" to="I20" priority="3" numLanes="3" speed="13.90"/>
  <edge id="I20_I19" from="I20" to="I19" priority="3" numLanes="3" speed="13.90"/>
  <edge id="I20_I21" from="I20" to="I21" priority="3" numLanes="3" speed="13.90"/>
  <edge id="I21_I20" from="I21" to="I20" priority="3" numLanes="3" speed="13.90"/>
  <edge id="I21_I22" from="I21" to="I22" priority="3" numLanes="3" speed="13.90"/>
  <edge id="I22_I21" from="I22" to="I21" priority="3" numLanes="3" speed="13.90"/>
  <edge id="I22_I23" from="I22" to="I23" priority="3" numLanes="3" speed="13.90"/>
  <edge id="I23_I22" from="I23" to="I22" priority="3" numLanes="3" speed="13.90"/>
  <edge id="I23_I24" from="I23" to="I24" priority="3" numLanes="3" speed="13.90"/>
  <edge id="I24_I23" from="I24" to="I23" priority="3" numLanes="3" speed="13.90"/>
  <edge id="I24_I25" from="I24" to="I25" priority="3" numLanes="3" speed="13.90"/>
  <edge id="I25_I24" from="I25" to="I24" priority="3" numLanes="3" speed="13.90"/>
  <edge id="I25_I26" from="I25" to="I26" priority="3" numLanes="3" speed="13.90"/>
  <edge id="I26_I25" from="I26" to="I25" priority="3" numLanes="3" speed="13.90"/>
  <edge id="I26_I27" from="I26" to="I27" priority="3" numLanes="3" speed="13.90"/>
  <edge id="I27_I26" from="I27" to="I26" priority="3" numLanes="3" speed="13.90"/>
  <edge id="I27_I28" from="I27" to="I28" priority="3" numLanes="3" speed="13.90"/>
  <edge id="I28_I27" from="I28" to="I27" priority="3" numLanes="3" speed="13.90"/>
  <edge id="I28_I29" from="I28" to="I29" priority="3" numLanes="3" speed="13.90"/>
  <edge id="I29_I28" from="I29" to="I28" priority="3" numLanes="3" speed="13.90"/>
  <edge id="I29_I30" from="I29" to="I30" priority="3" numLanes="3" speed="13.90"/>
  <edge id="I30_I29" from="I30" to="I29" priority="3" numLanes="3" speed="13.90"/>
  <edge id="I30_I31" from="I30" to="I31" priority="3" numLanes="3" speed="13.90"/>
  <edge id="I31_I30" from="I31" to="I30" priority="3" numLanes="3" speed="13.90"/>
  <edge id="I31_I32" from="I31" to="I32" priority="3" numLanes="3" speed="13.90"/>
  <edge id="I32_I31" from="I32" to="I31" priority="3" numLanes="3" speed="13.90"/>
  <edge id="I32_I33" from="I32" to="I33" priority="3" numLanes="3" speed="13.90"/>
  <edge id="I33_I32" from="I33" to="I32" priority="3" numLanes="3" speed="13.90"/>
  <edge id="I33_I34" from="I33" to="I34" priority="3" numLanes="3" speed="13.90"/>
  <edge id="I34_I33" from="I34" to="I33" priority="3" numLanes="3" speed="13.90"/>
  <edge id="I34_I35" from="I34" to="I35" priority="3" numLanes="3" speed="13.90"/>
  <edge id="I35_I34" from="I35" to="I34" priority="3" numLanes="3" speed="13.90"/>
  <edge id="I35_I36" from="I35" to="I36" priority="3" numLanes="3" speed="13.90"/>
  <edge id="I36_I35" from="I36" to="I35" priority="3" numLanes="3" speed="13.90"/>
  <edge id="I36_I37" from="I36" to="I37" priority="3" numLanes="3" speed="13.90"/>
  <edge id="I37_I36" from="I37" to="I36" priority="3" numLanes="3" speed="13.90"/>
  <edge id="I37_I38" from="I37" to="I38" priority="3" numLanes="3" speed="13.90"/>
  <edge id="I38_I37" from="I38" to="I37" priority="3" numLanes="3" speed="13.90"/>
  <edge id="I38_I39" from="I38" to="I39" priority="3" numLanes="3" speed="13.90"/>
  <edge id="I39_I38" from="I39" to="I38" priority="3" numLanes="3" speed="13.90"/>
  <edge id="I39_I40" from="I39" to="I40" priority="3" numLanes="3" speed="13.90"/>
  <edge id="I40_I39" from="I40" to="I39" priority="3" numLanes="3" speed="13.90"/>
  <edge id="I40_I41" from="I40" to="I41" priority="3" numLanes="3" speed="13.90"/>
  <edge id="I41_I40" from="I41" to="I40" priority="3" numLanes="3" speed="13.90"/>
  <edge id="I41_I42" from="I41" to="I42" priority="3" numLanes="3" speed="13.90"/>
  <edge id="I42_I41" from="I42" to="I41" priority="3" numLanes="3" speed="13.90"/>
  <edge id="I42_I43" from="I42" to="I43" priority="3" numLanes="3" speed="13.90"/>
  <edge id="I43_I42" from="I43" to="I42" priority="3" numLanes="3" speed="13.90"/>
  <edge id="I43_I44" from="I43" to="I44" priority="3" numLanes="3" speed="13.90"/>
  <edge id="I44_I43" from="I44" to="I43" priority="3" numLanes="3" speed="13.90"/>
  <edge id="I44_I45" from="I44" to="I45" priority="3" numLanes="3" speed="13.90"/>
  <edge id="I45_I44" from="I45" to="I44" priority="3" numLanes="3" speed="13.90"/>
  <edge id="I45_I46" from="I45" to="I46" priority="3" numLanes="3" speed="13.90"/>
  <edge id="I46_I45" from="I46" to="I45" priority="3" numLanes="3" speed="13.90"/>
  <edge id="I46_I47" from="I46" to="I47" priority="3" numLanes="3" speed="13.90"/>
  <edge id="I47_I46" from="I47" to="I46" priority="3" numLanes="3" speed="13.90"/>
  <edge id="I47_I48" from="I47" to="I48" priority="3" numLanes="3" speed="13.90"/>
  <edge id="I48_I47" from="I48" to="I47" priority="3" numLanes="3" speed="13.90"/>
  <edge id="I48_I49" from="I48" to="I49" priority="3" numLanes="3" speed="13.90"/>
  <edge id="I49_I48" from="I49" to="I48" priority="3" numLanes="3" speed="13.90"/>
  <edge id="I49_I50" from="I49" to="I50" priority="3" numLanes="3" speed="13.90"/>
  <edge id="I50_I49" from="I50" to="I49" priority="3" numLanes="3" speed="13.90"/>
  <edge id="I50_I51" from="I50" to="I51" priority="3" numLanes="3" speed="13.90"/>
  <edge id="I51_I50" from="I51" to="I50" priority="3" numLanes="3" speed="13.90"/>
  <edge id="I51_I52" from="I51" to="I52" priority="3" numLanes="3" speed="13.90"/>
  <edge id="I52_I51" from="I52" to="I51" priority="3" numLanes="3" speed="13.90"/>
  <edge id="I52_I53" from="I52" to="I53" priority="3" numLanes="3" speed="13.90"/>
  <edge id="I53_I52" from="I53" to="I52" priority="3" numLanes="3" speed="13.90"/>
  <edge id="I53_I54" from="I53" to="I54" priority="3" numLanes="3" speed="13.90"/>
  <edge id="I54_I53" from="I54" to="I53" priority="3" numLanes="3" speed="13.90"/>
  <edge id="I54_I55" from="I54" to="I55" priority="3" numLanes="3" speed="13.90"/>
  <edge id="I55_I54" from="I55" to="I54" priority="3" numLanes="3" speed="13.90"/>
  <edge id="I55_I56" from="I55" to="I56" priority="3" numLanes="3" speed="13.90"/>
  <edge id="I56_I55" from="I56" to="I55" priority="3" numLanes="3" speed="13.90"/>
  <edge id="I56_I57" from="I56" to="I57" priority="3" numLanes="3" speed="13.90"/>
  <edge id="I57_I56" from="I57" to="I56" priority="3" numLanes="3" speed="13.90"/>
  <edge id="I57_I58" from="I57" to="I58" priority="3" numLanes="3" speed="13.90"/>
  <edge id="I58_I57" from="I58" to="I57" priority="3" numLanes="3" speed="13.90"/>
  <edge id="I58_I59" from="I58" to="I59" priority="3" numLanes="3" speed="13.90"/>
  <edge id="I59_I58" from="I59" to="I58" priority="3" numLanes="3" speed="13.90"/>
  <edge id="I59_I60" from="I59" to="I60" priority="3" numLanes="3" speed="13.90"/>
  <edge id="I60_I59" from="I60" to="I59" priority="3" numLanes="3" speed="13.90"/>
  <edge id="I60_I61" from="I60" to="I61" priority="3" numLanes="3" speed="13.90"/>
  <edge id="I61_I60" from="I61" to="I60" priority="3" numLanes="3" speed="13.90"/>
  <edge id="I61_I62" from="I61" to="I62" priority="3" numLanes="3" speed="13.90"/>
  <edge id="I62_I61" from="I62" to="I61" priority="3" numLanes="3" speed="13.90"/>
  <edge id="I62_I63" from="I62" to="I63" priority="3" numLanes="3" speed="13.90"/>
  <edge id="I63_I62" from="I63" to="I62" priority="3" numLanes="3" speed="13.90"/>
  <edge id="I63_I64" from="I63" to="I64" priority="3" numLanes="3" speed="13.90"/>
  <edge id="I64_I63" from="I64" to="I63" priority="3" numLanes="3" speed="13.90"/>
  <edge id="I64_I65" from="I64" to="I65" priority="3" numLanes="3" speed="13.90"/>
  <edge id="I65_I64" from="I65" to="I64" priority="3" numLanes="3" speed="13.90"/>
  <edge id="I65_I66" from="I65" to="I66" priority="3" numLanes="3" speed="13.90"/>
  <edge id="I66_I65" from="I66" to="I65" priority="3" numLanes="3" speed="13.90"/>
  <edge id="I66_I67" from="I66" to="I67" priority="3" numLanes="3" speed="13.90"/>
  <edge id="I67_I66" from="I67" to="I66" priority="3" numLanes="3" speed="13.90"/>
  <edge id="I67_I68" from="I67" to="I68" priority="3" numLanes="3" speed="13.90"/>
  <edge id="I68_I67" from="I68" to="I67" priority="3" numLanes="3" speed="13.90"/>
  <edge id="I68_I69" from="I68" to="I69" priority="3" numLanes="3" speed="13.90"/>
  <edge id="I69_I68" from="I69" to="I68" priority="3" numLanes="3" speed="13.90"/>
  <edge id="I69_I70" from="I69" to="I70" priority="3" numLanes="3" speed="13.90"/>
  <edge id="I70_I69" from="I70" to="I69" priority="3" numLanes="3" speed="13.90"/>
  <edge id="I70_I71" from="I70" to="I71" priority="3" numLanes="3" speed="13.90"/>
  <edge id="I71_I70" from="I71" to="I70" priority="3" numLanes="3" speed="13.90"/>
  <edge id="I71_I72" from="I71" to="I72" priority="3" numLanes="3" speed="13.90"/>
  <edge id="I72_I71" from="I72" to="I71" priority="3" numLanes="3" speed="13.90"/>
  <edge id="I72_I73" from="I72" to="I73" priority="3" numLanes="3" speed="13.90"/>
  <edge id="I73_I72" from="I73" to="I72" priority="3" numLanes="3" speed="13.90"/>
  <edge id="I73_I74" from="I73" to="I74" priority="3" numLanes="3" speed="13.90"/>
  <edge id="I74_I73" from="I74" to="I73" priority="3" numLanes="3" speed="13.90"/>
  <edge id="I74_I75" from="I74" to="I75" priority="3" numLanes="3" speed="13.90"/>
  <edge id="I75_I74" from="I75" to="I74" priority="3" numLanes="3" speed="13.90"/>
  <edge id="I75_I76" from="I75" to="I76" priority="3" numLanes="3" speed="13.90"/>
  <edge id="I76_I75" from="I76" to="I75" priority="3" numLanes="3" speed="13.90"/>
  <edge id="I76_I77" from="I76" to="I77" priority="3" numLanes="3" speed="13.90"/>
  <edge id="I77_I76" from="I77" to="I76" priority="3" numLanes="3" speed="13.90"/>
  <edge id="I77_I78" from="I77" to="I78" priority="3" numLanes="3" speed="13.90"/>
  <edge id="I78_I77" from="I78" to="I77" priority="3" numLanes="3" speed="13.90"/>
  <edge id="I78_I79" from="I78" to="I79" priority="3" numLanes="3" speed="13.90"/>
  <edge id="I79_I78" from="I79" to="I78" priority="3" numLanes="3" speed="13.90"/>
  <edge id="I79_I80" from="I79" to="I80" priority="3" numLanes="3" speed="13.90"/>
  <edge id="I80_I79" from="I80" to="I79" priority="3" numLanes="3" speed="13.90"/>
  <edge id="I80_I81" from="I80" to="I81" priority="3" numLanes="3" speed="13.90"/>
  <edge id="I81_I80" from="I81" to="I80" priority="3" numLanes="3" speed="13.90"/>
  <edge id="I81_I82" from="I81" to="I82" priority="3" numLanes="3" speed="13.90"/>
  <edge id="I82_I81" from="I82" to="I81" priority="3" numLanes="3" speed="13.90"/>
  <edge id="I82_I83" from="I82" to="I83" priority="3" numLanes="3" speed="13.90"/>
  <edge id="I83_I82" from="I83" to="I82" priority="3" numLanes="3" speed="13.90"/>
  <edge id="I83_I84" from="I83" to="I84" priority="3" numLanes="3" speed="13.90"/>
  <edge id="I84_I83" from="I84" to="I83" priority="3" numLanes="3" speed="13.90"/>
  <edge id="I84_I85" from="I84" to="I85" priority="3" numLanes="3" speed="13.90"/>
  <edge id="I85_I84" from="I85" to="I84" priority="3" numLanes="3" speed="13.90"/>
  <edge id="I85_I86" from="I85" to="I86" priority="3" numLanes="3" speed="13.90"/>
  <edge id="I86_I85" from="I86" to="I85" priority="3" numLanes="3" speed="13.90"/>
  <edge id="I86_I87" from="I86" to="I87" priority="3" numLanes="3" speed="13.90"/>
  <edge id="I87_I86" from="I87" to="I86" priority="3" numLanes="3" speed="13.90"/>
  <edge id="I87_I88" from="I87" to="I88" priority="3" numLanes="3" speed="13.90"/>
  <edge id="I88_I87" from="I88" to="I87" priority="3" numLanes="3" speed="13.90"/>
  <edge id="I88_I89" from="I88" to="I89" priority="3" numLanes="3" speed="13.90"/>
  <edge id="I89_I88" from="I89" to="I88" priority="3" numLanes="3" speed="13.90"/>
  <edge id="I89_I90" from="I89" to="I90" priority="3" numLanes="3" speed="13.90"/>
  <edge id="I90_I89" from="I90" to="I89" priority="3" numLanes="3" speed="13.90"/>
  <edge id="I90_I91" from="I90" to="I91" priority="3" numLanes="3" speed="13.90"/>
  <edge id="I91_I90" from="I91" to="I90" priority="3" numLanes="3" speed="13.90"/>
  <edge id="I91_I92" from="I91" to="I92" priority="3" numLanes="3" speed="13.90"/>
  <edge id="I92_I91" from="I92" to="I91" priority="3" numLanes="3" speed="13.90"/>
  <edge id="I92_I93" from="I92" to="I93" priority="3" numLanes="3" speed="13.90"/>
  <edge id="I93_I92" from="I93" to="I92" priority="3" numLanes="3" speed="13.90"/>
  <edge id="I93_I94" from="I93" to="I94" priority="3" numLanes="3" speed="13.90"/>
  <edge id="I94_I93" from="I94" to="I93" priority="3" numLanes="3" speed="13.90"/>
  <edge id="I94_I95" from="I94" to="I95" priority="3" numLanes="3" speed="13.90"/>
  <edge id="I95_I94" from="I95" to="I94" priority="3" numLanes="3" speed="13.90"/>
  <edge id="I95_I96" from="I95" to="I96" priority="3" numLanes="3" speed="13.90"/>
  <edge id="I96_I95" from="I96" to="I95" priority="3" numLanes="3" speed="13.90"/>
  <edge id="I96_I97" from="I96" to="I97" priority="3" numLanes="3" speed="13.90"/>
  <edge id="I97_I96" from="I97" to="I96" priority="3" numLanes="3" speed="13.90"/>
  <edge id="I97_I98" from="I97" to="I98" priority="3" numLanes="3" speed="13.90"/>
  <edge id="I98_I97" from="I98" to="I97" priority="3" numLanes="3" speed="13.90"/>
  <edge id="I98_I99" from="I98" to="I99" priority="3" numLanes="3" speed="13.90"/>
  <edge id="I99_I98" from="I99" to="I98" priority="3" numLanes="3" speed="13.90"/>
  <edge id="I99_E99" from="I99" to="E99" priority="3" numLanes="3" speed="13.90"/>
  <edge id="E99_I99" from="E99" to="I99" priority="3" numLanes="3" speed="13.90"/>
  <edge id="N0_I0" from="N0" to="I0" priority="1" numLanes="1" speed="13.90"/>
  <edge id="I0_N0" from="I0" to="N0" priority="1" numLanes="1" speed="13.90"/>
  <edge id="S0_I0" from="S0" to="I0" priority="1" numLanes="1" speed="13.90"/>
  <edge id="I0_S0" from="I0" to="S0" priority="1" numLanes="1" speed="13.90"/>
  <edge id="N1_I1" from="N1" to="I1" priority="1" numLanes="1" speed="13.90"/>
  <edge id="I1_N1" from="I1" to="N1" priority="1" numLanes="1" speed="13.90"/>
  <edge id="S1_I1" from="S1" to="I1" priority="1" numLanes="1" speed="13.90"/>
  <edge id="I1_S1" from="I1" to="S1" priority="1" numLanes="1" speed="13.90"/>
  <edge id="N2_I2" from="N2" to="I2" priority="1" numLanes="1" speed="13.90"/>
  <edge id="I2_N2" from="I2" to="N2" priority="1" numLanes="1" speed="13.90"/>
  <edge id="S2_I2" from="S2" to="I2" priority="1" numLanes="1" speed="13.90"/>
  <edge id="I2_S2" from="I2" to="S2" priority="1" numLanes="1" speed="13.90"/>
  <edge id="N3_I3" from="N3" to="I3" priority="1" numLanes="1" speed="13.90"/>
  <edge id="I3_N3" from="I3" to="N3" priority="1" numLanes="1" speed="13.90"/>
  <edge id="S3_I3" from="S3" to="I3" priority="1" numLanes="1" speed="13.90"/>
  <edge id="I3_S3" from="I3" to="S3" priority="1" numLanes="1" speed="13.90"/>
  <edge id="N4_I4" from="N4" to="I4" priority="1" numLanes="1" speed="13.90"/>
  <edge id="I4_N4" from="I4" to="N4" priority="1" numLanes="1" speed="13.90"/>
  <edge id="S4_I4" from="S4" to="I4" priority="1" numLanes="1" speed="13.90"/>
  <edge id="I4_S4" from="I4" to="S4" priority="1" numLanes="1" speed="13.90"/>
  <edge id="N5_I5" from="N5" to="I5" priority="1" numLanes="1" speed="13.90"/>
  <edge id="I5_N5" from="I5" to="N5" priority="1" numLanes="1" speed="13.90"/>
  <edge id="S5_I5" from="S5" to="I5" priority="1" numLanes="1" speed="13.90"/>
  <edge id="I5_S5" from="I5" to="S5" priority="1" numLanes="1" speed="13.90"/>
  <edge id="N6_I6" from="N6" to="I6" priority="1" numLanes="1" speed="13.90"/>
  <edge id="I6_N6" from="I6" to="N6" priority="1" numLanes="1" speed="13.90"/>
  <edge id="S6_I6" from="S6" to="I6" priority="1" numLanes="1" speed="13.90"/>
  <edge id="I6_S6" from="I6" to="S6" priority="1" numLanes="1" speed="13.90"/>
  <edge id="N7_I7" from="N7" to="I7" priority="1" numLanes="1" speed="13.90"/>
  <edge id="I7_N7" from="I7" to="N7" priority="1" numLanes="1" speed="13.90"/>
  <edge id="S7_I7" from="S7" to="I7" priority="1" numLanes="1" speed="13.90"/>
  <edge id="I7_S7" from="I7" to="S7" priority="1" numLanes="1" speed="13.90"/>
  <edge id="N8_I8" from="N8" to="I8" priority="1" numLanes="1" speed="13.90"/>
  <edge id="I8_N8" from="I8" to="N8" priority="1" numLanes="1" speed="13.90"/>
  <edge id="S8_I8" from="S8" to="I8" priority="1" numLanes="1" speed="13.90"/>
  <edge id="I8_S8" from="I8" to="S8" priority="1" numLanes="1" speed="13.90"/>
  <edge id="N9_I9" from="N9" to="I9" priority="1" numLanes="1" speed="13.90"/>
  <edge id="I9_N9" from="I9" to="N9" priority="1" numLanes="1" speed="13.90"/>
  <edge id="S9_I9" from="S9" to="I9" priority="1" numLanes="1" speed="13.90"/>
  <edge id="I9_S9" from="I9" to="S9" priority="1" numLanes="1" speed="13.90"/>
  <edge id="N10_I10" from="N10" to="I10" priority="1" numLanes="1" speed="13.90"/>
  <edge id="I10_N10" from="I10" to="N10" priority="1" numLanes="1" speed="13.90"/>
  <edge id="S10_I10" from="S10" to="I10" priority="1" numLanes="1" speed="13.90"/>
  <edge id="I10_S10" from="I10" to="S10" priority="1" numLanes="1" speed="13.90"/>
  <edge id="N11_I11" from="N11" to="I11" priority="1" numLanes="1" speed="13.90"/>
  <edge id="I11_N11" from="I11" to="N11" priority="1" numLanes="1" speed="13.90"/>
  <edge id="S11_I11" from="S11" to="I11" priority="1" numLanes="1" speed="13.90"/>
  <edge id="I11_S11" from="I11" to="S11" priority="1" numLanes="1" speed="13.90"/>
  <edge id="N12_I12" from="N12" to="I12" priority="1" numLanes="1" speed="13.90"/>
  <edge id="I12_N12" from="I12" to="N12" priority="1" numLanes="1" speed="13.90"/>
  <edge id="S12_I12" from="S12" to="I12" priority="1" numLanes="1" speed="13.90"/>
  <edge id="I12_S12" from="I12" to="S12" priority="1" numLanes="1" speed="13.90"/>
  <edge id="N13_I13" from="N13" to="I13" priority="1" numLanes="1" speed="13.90"/>
  <edge id="I13_N13" from="I13" to="N13" priority="1" numLanes="1" speed="13.90"/>
  <edge id="S13_I13" from="S13" to="I13" priority="1" numLanes="1" speed="13.90"/>
  <edge id="I13_S13" from="I13" to="S13" priority="1" numLanes="1" speed="13.90"/>
  <edge id="N14_I14" from="N14" to="I14" priority="1" numLanes="1" speed="13.90"/>
  <edge id="I14_N14" from="I14" to="N14" priority="1" numLanes="1" speed="13.90"/>
  <edge id="S14_I14" from="S14" to="I14" priority="1" numLanes="1" speed="13.90"/>
  <edge id="I14_S14" from="I14" to="S14" priority="1" numLanes="1" speed="13.90"/>
  <edge id="N15_I15" from="N15" to="I15" priority="1" numLanes="1" speed="13.90"/>
  <edge id="I15_N15" from="I15" to="N15" priority="1" numLanes="1" speed="13.90"/>
  <edge id="S15_I15" from="S15" to="I15" priority="1" numLanes="1" speed="13.90"/>
  <edge id="I15_S15" from="I15" to="S15" priority="1" numLanes="1" speed="13.90"/>
  <edge id="N16_I16" from="N16" to="I16" priority="1" numLanes="1" speed="13.90"/>
  <edge id="I16_N16" from="I16" to="N16" priority="1" numLanes="1" speed="13.90"/>
  <edge id="S16_I16" from="S16" to="I16" priority="1" numLanes="1" speed="13.90"/>
  <edge id="I16_S16" from="I16" to="S16" priority="1" numLanes="1" speed="13.90"/>
  <edge id="N17_I17" from="N17" to="I17" priority="1" numLanes="1" speed="13.90"/>
  <edge id="I17_N17" from="I17" to="N17" priority="1" numLanes="1" speed="13.90"/>
  <edge id="S17_I17" from="S17" to="I17" priority="1" numLanes="1" speed="13.90"/>
  <edge id="I17_S17" from="I17" to="S17" priority="1" numLanes="1" speed="13.90"/>
  <edge id="N18_I18" from="N18" to="I18" priority="1" numLanes="1" speed="13.90"/>
  <edge id="I18_N18" from="I18" to="N18" priority="1" numLanes="1" speed="13.90"/>
  <edge id="S18_I18" from="S18" to="I18" priority="1" numLanes="1" speed="13.90"/>
  <edge id="I18_S18" from="I18" to="S18" priority="1" numLanes="1" speed="13.90"/>
  <edge id="N19_I19" from="N19" to="I19" priority="1" numLanes="1" speed="13.90"/>
  <edge id="I19_N19" from="I19" to="N19" priority="1" numLanes="1" speed="13.90"/>
  <edge id="S19_I19" from="S19" to="I19" priority="1" numLanes="1" speed="13.90"/>
  <edge id="I19_S19" from="I19" to="S19" priority="1" numLanes="1" speed="13.90"/>
  <edge id="N20_I20" from="N20" to="I20" priority="1" numLanes="1" speed="13.90"/>
  <edge id="I20_N20" from="I20" to="N20" priority="1" numLanes="1" speed="13.90"/>
  <edge id="S20_I20" from="S20" to="I20" priority="1" numLanes="1" speed="13.90"/>
  <edge id="I20_S20" from="I20" to="S20" priority="1" numLanes="1" speed="13.90"/>
  <edge id="N21_I21" from="N21" to="I21" priority="1" numLanes="1" speed="13.90"/>
  <edge id="I21_N21" from="I21" to="N21" priority="1" numLanes="1" speed="13.90"/>
  <edge id="S21_I21" from="S21" to="I21" priority="1" numLanes="1" speed="13.90"/>
  <edge id="I21_S21" from="I21" to="S21" priority="1" numLanes="1" speed="13.90"/>
  <edge id="N22_I22" from="N22" to="I22" priority="1" numLanes="1" speed="13.90"/>
  <edge id="I22_N22" from="I22" to="N22" priority="1" numLanes="1" speed="13.90"/>
  <edge id="S22_I22" from="S22" to="I22" priority="1" numLanes="1" speed="13.90"/>
  <edge id="I22_S22" from="I22" to="S22" priority="1" numLanes="1" speed="13.90"/>
  <edge id="N23_I23" from="N23" to="I23" priority="1" numLanes="1" speed="13.90"/>
  <edge id="I23_N23" from="I23" to="N23" priority="1" numLanes="1" speed="13.90"/>
  <edge id="S23_I23" from="S23" to="I23" priority="1" numLanes="1" speed="13.90"/>
  <edge id="I23_S23" from="I23" to="S23" priority="1" numLanes="1" speed="13.90"/>
  <edge id="N24_I24" from="N24" to="I24" priority="1" numLanes="1" speed="13.90"/>
  <edge id="I24_N24" from="I24" to="N24" priority="1" numLanes="1" speed="13.90"/>
  <edge id="S24_I24" from="S24" to="I24" priority="1" numLanes="1" speed="13.90"/>
  <edge id="I24_S24" from="I24" to="S24" priority="1" numLanes="1" speed="13.90"/>
  <edge id="N25_I25" from="N25" to="I25" priority="1" numLanes="1" speed="13.90"/>
  <edge id="I25_N25" from="I25" to="N25" priority="1" numLanes="1" speed="13.90"/>
  <edge id="S25_I25" from="S25" to="I25" priority="1" numLanes="1" speed="13.90"/>
  <edge id="I25_S25" from="I25" to="S25" priority="1" numLanes="1" speed="13.90"/>
  <edge id="N26_I26" from="N26" to="I26" priority="1" numLanes="1" speed="13.90"/>
  <edge id="I26_N26" from="I26" to="N26" priority="1" numLanes="1" speed="13.90"/>
  <edge id="S26_I26" from="S26" to="I26" priority="1" numLanes="1" speed="13.90"/>
  <edge id="I26_S26" from="I26" to="S26" priority="1" numLanes="1" speed="13.90"/>
  <edge id="N27_I27" from="N27" to="I27" priority="1" numLanes="1" speed="13.90"/>
  <edge id="I27_N27" from="I27" to="N27" priority="1" numLanes="1" speed="13.90"/>
  <edge id="S27_I27" from="S27" to="I27" priority="1" numLanes="1" speed="13.90"/>
  <edge id="I27_S27" from="I27" to="S27" priority="1" numLanes="1" speed="13.90"/>
  <edge id="N28_I28" from="N28" to="I28" priority="1" numLanes="1" speed="13.90"/>
  <edge id="I28_N28" from="I28" to="N28" priority="1" numLanes="1" speed="13.90"/>
  <edge id="S28_I28" from="S28" to="I28" priority="1" numLanes="1" speed="13.90"/>
  <edge id="I28_S28" from="I28" to="S28" priority="1" numLanes="1" speed="13.90"/>
  <edge id="N29_I29" from="N29" to="I29" priority="1" numLanes="1" speed="13.90"/>
  <edge id="I29_N29" from="I29" to="N29" priority="1" numLanes="1" speed="13.90"/>
  <edge id="S29_I29" from="S29" to="I29" priority="1" numLanes="1" speed="13.90"/>
  <edge id="I29_S29" from="I29" to="S29" priority="1" numLanes="1" speed="13.90"/>
  <edge id="N30_I30" from="N30" to="I30" priority="1" numLanes="1" speed="13.90"/>
  <edge id="I30_N30" from="I30" to="N30" priority="1" numLanes="1" speed="13.90"/>
  <edge id="S30_I30" from="S30" to="I30" priority="1" numLanes="1" speed="13.90"/>
  <edge id="I30_S30" from="I30" to="S30" priority="1" numLanes="1" speed="13.90"/>
  <edge id="N31_I31" from="N31" to="I31" priority="1" numLanes="1" speed="13.90"/>
  <edge id="I31_N31" from="I31" to="N31" priority="1" numLanes="1" speed="13.90"/>
  <edge id="S31_I31" from="S31" to="I31" priority="1" numLanes="1" speed="13.90"/>
  <edge id="I31_S31" from="I31" to="S31" priority="1" numLanes="1" speed="13.90"/>
  <edge id="N32_I32" from="N32" to="I32" priority="1" numLanes="1" speed="13.90"/>
  <edge id="I32_N32" from="I32" to="N32" priority="1" numLanes="1" speed="13.90"/>
  <edge id="S32_I32" from="S32" to="I32" priority="1" numLanes="1" speed="13.90"/>
  <edge id="I32_S32" from="I32" to="S32" priority="1" numLanes="1" speed="13.90"/>
  <edge id="N33_I33" from="N33" to="I33" priority="1" numLanes="1" speed="13.90"/>
  <edge id="I33_N33" from="I33" to="N33" priority="1" numLanes="1" speed="13.90"/>
  <edge id="S33_I33" from="S33" to="I33" priority="1" numLanes="1" speed="13.90"/>
  <edge id="I33_S33" from="I33" to="S33" priority="1" numLanes="1" speed="13.90"/>
  <edge id="N34_I34" from="N34" to="I34" priority="1" numLanes="1" speed="13.90"/>
  <edge id="I34_N34" from="I34" to="N34" priority="1" numLanes="1" speed="13.90"/>
  <edge id="S34_I34" from="S34" to="I34" priority="1" numLanes="1" speed="13.90"/>
  <edge id="I34_S34" from="I34" to="S34" priority="1" numLanes="1" speed="13.90"/>
  <edge id="N35_I35" from="N35" to="I35" priority="1" numLanes="1" speed="13.90"/>
  <edge id="I35_N35" from="I35" to="N35" priority="1" numLanes="1" speed="13.90"/>
  <edge id="S35_I35" from="S35" to="I35" priority="1" numLanes="1" speed="13.90"/>
  <edge id="I35_S35" from="I35" to="S35" priority="1" numLanes="1" speed="13.90"/>
  <edge id="N36_I36" from="N36" to="I36" priority="1" numLanes="1" speed="13.90"/>
  <edge id="I36_N36" from="I36" to="N36" priority="1" numLanes="1" speed="13.90"/>
  <edge id="S36_I36" from="S36" to="I36" priority="1" numLanes="1" speed="13.90"/>
  <edge id="I36_S36" from="I36" to="S36" priority="1" numLanes="1" speed="13.90"/>
  <edge id="N37_I37" from="N37" to="I37" priority="1" numLanes="1" speed="13.90"/>
  <edge id="I37_N37" from="I37" to="N37" priority="1" numLanes="1" speed="13.90"/>
  <edge id="S37_I37" from="S37" to="I37" priority="1" numLanes="1" speed="13.90"/>
  <edge id="I37_S37" from="I37" to="S37" priority="1" numLanes="1" speed="13.90"/>
  <edge id="N38_I38" from="N38" to="I38" priority="1" numLanes="1" speed="13.90"/>
  <edge id="I38_N38" from="I38" to="N38" priority="1" numLanes="1" speed="13.90"/>
  <edge id="S38_I38" from="S38" to="I38" priority="1" numLanes="1" speed="13.90"/>
  <edge id="I38_S38" from="I38" to="S38" priority="1" numLanes="1" speed="13.90"/>
  <edge id="N39_I39" from="N39" to="I39" priority="1" numLanes="1" speed="13.90"/>
  <edge id="I39_N39" from="I39" to="N39" priority="1" numLanes="1" speed="13.90"/>
  <edge id="S39_I39" from="S39" to="I39" priority="1" numLanes="1" speed="13.90"/>
  <edge id="I39_S39" from="I39" to="S39" priority="1" numLanes="1" speed="13.90"/>
  <edge id="N40_I40" from="N40" to="I40" priority="1" numLanes="1" speed="13.90"/>
  <edge id="I40_N40" from="I40" to="N40" priority="1" numLanes="1" speed="13.90"/>